test/data/matpower/case5_ACDC_SPM_100cc_alpha.m
%% MATPOWER Case Format : Version 2
function mpc = no_name_found
mpc.version = '2';

%% stochastic data
%column_names%  dst         pa      pb
mpc.sdata = [
                'Normal'    0.0     0.0;
				%'Normal'    0.0     0.0;
                'Beta'		11.9241	2.3847;
];

%% RES data
%column_names%  RES_bus dst_id 
mpc.RES = [ 	1 2;
                2 2;
				3 2;
				4 2;
				5 2;
];

%%-----  Power Flow Data  -----%%
%% system MVA base
mpc.baseMVA = 100.0;
%% bus data
%    bus_i    type    Pd    Qd    Gs    Bs    area    Vm    Va    baseKV    zone    Vmax    Vmin
mpc.bus = [
	1	2	0.0	0.0	0.0	0.0	1	1.0	0.0	230.0	1	1.1	0.9				
	2	1	300.0	98.61	0.0	0.0	1	1.0	0.0	230.0	1	1.1	0.9				
	3	2	300.0	98.61	0.0	0.0	1	1.0	0.0	230.0	1	1.1	0.9				
	4	3	400.0	131.47	0.0	0.0	1	1.0	0.0	230.0	1	1.1	0.9				
	5	2	0.0	0.0	0.0	0.0	1	1.0	0.0	230.0	1	1.1	0.9				
];

%% generator data
%    bus    Pg    Qg    Qmax    Qmin    Vg    mBase    status    Pmax    Pmin    Pc1    Pc2    Qc1min    Qc1max    Qc2min    Qc2max    ramp_agc    ramp_10    ramp_30    ramp_q    apf
mpc.gen = [
	1	20.0	0.0	30.0	-30.0	1.0	100.0	1	40.0	0.0															
	1	85.0	0.0	127.49999999999999	-127.49999999999999	1.0	100.0	1	170.0	0.0															
	3	260.0	0.0	390.0	-390.0	1.0	100.0	1	520.0	0.0															
	4	100.0	0.0	150.0	-150.0	1.0	100.0	1	200.0	0.0															
	5	300.0	0.0	450.0	-450.0	1.0	100.0	1	600.0	0.0															
];

%% branch data
%    f_bus    t_bus    r    x    b    rateA    rateB    rateC    ratio    angle    status    angmin    angmax
mpc.branch = [
	1	2	0.00281	0.0281	0.00712	400.0	400.0	400.0	0	0	1	-29.999999999999996	29.999999999999996								
	1	4	0.00304	0.0304	0.00658	426.0	426.0	426.0	0	0	1	-29.999999999999996	29.999999999999996								
	1	5	0.00064	0.0064	0.03126	426.0	426.0	426.0	0	0	1	-29.999999999999996	29.999999999999996								
	2	3	0.00108	0.0108	0.01852	426.0	426.0	426.0	0	0	1	-29.999999999999996	29.999999999999996								
	3	4	0.00297	0.0297	0.00674	426.0	426.0	426.0	0	0	1	-29.999999999999996	29.999999999999996								
	4	5	0.00297	0.0297	0.00674	240.0	240.0	240.0	0	0	1	-29.999999999999996	29.999999999999996								
];

%%-----  OPF Data  -----%%
%% cost data
%    1    startup    shutdown    n    x1    y1    ...    xn    yn
%    2    startup    shutdown    n    c(n-1)    ...    c0
mpc.gencost = [
	2	0.0	0.0	2	14.0	0.0
	2	0.0	0.0	2	15.0	0.0
	2	0.0	0.0	2	30.0	0.0
	2	0.0	0.0	2	40.0	0.0
	2	0.0	0.0	2	10.0	0.0
];

%column_names% μ dst_id λvmax σ λvmin 
mpc.bus_data = {
	0.0	1	4.265	0.0	4.265
	300.0	1	4.265	30.0	4.265
	300.0	1	4.265	30.0	4.265
	400.0	1	4.265	40.0	4.265
	0.0	1	4.265	0.0	4.265
};

%column_names% λqmax λpmax λpmin λqmin 
mpc.gen_data = {
	4.265	4.265	4.265	4.265
	4.265	4.265	4.265	4.265
	4.265	4.265	4.265	4.265
	4.265	4.265	4.265	4.265
	4.265	4.265	4.265	4.265
};

%column_names% λcmax 
mpc.branch_data = {
	4.265
	4.265
	4.265
	4.265
	4.265
	4.265
};

mpc.dcpol = 2;

%column_names% dVdcset Vtar Pacmax filter reactor Vdcset Vmmax xtf Imax λvmax status Pdcset islcc LossA Qacmin rc rtf xc busdc_i busac_i tm type_dc Q_g LossB basekVac LossCrec droop Pacmin Qacmax type_ac Vmmin P_g transformer λvmin bf LossCinv 
mpc.convdc = {
	0	1	100	1	1	1.0079	1.1	0.01	1.1	4.265	1	-58.6274	0	1.103	-50	0.01	0.01	0.01	1	2	1	1	-40	0.887	345	2.885	0.005	-100	50	1	0.9	-60	1	4.265	0.01	2.885
	0	1	100	1	1	1.0	1.1	0.01	1.1	4.265	1	21.9013	0	1.103	-50	0.01	0.01	0.01	2	3	1	2	0	0.887	345	2.885	0.007	-100	50	1	0.9	0	1	4.265	0.01	2.885
	0	1	100	1	1	0.9978	1.1	0.01	1.1	4.265	1	36.1856	0	1.103	-50	0.01	0.01	0.01	3	5	1	1	5	0.887	345	2.885	0.005	-100	50	1	0.9	35	1	4.265	0.01	2.885
};

%column_names% col_1 col_2 
mpc.areas = {
	1	4
};

%column_names% c r status λcmax rateB fbusdc rateA l rateC tbusdc 
mpc.branchdc = {
	0	0.052	1	4.265	426	1	426	0	426	2
	0	0.052	1	4.265	426	2	426	0	426	3
	0	0.073	1	4.265	426	1	426	0	426	3
};

%column_names% Vdc λvmax Cdc basekVdc busdc_i grid λvmin Vdcmax Vdcmin Pdc 
mpc.busdc = {
	1	4.265	0	345	1	1	4.265	1.1	0.9	0
	1	4.265	0	345	2	1	4.265	1.1	0.9	0
	1	4.265	0	345	3	1	4.265	1.1	0.9	0
};


%column_names% 				prob    branch_id1  branchdc_id1    convdc_id1    
mpc.contingencies = [
                             0.935    0     0      0;                             
                             %0.005    1     0      0;
							 %0.005    2     0      0; 
							  %0.005    3     0      0; 
							  %0.005    4     0      0; 
							  %0.005    5     0      0;   
							  %0.005    6     0      0;    
							  %0.005    0     1      0;   
							  %0.005    0     2      0; 
							  %0.005    0     3      0;     
							  %0.005    0     0      1;   
							  %0.005    0     0      2; 
							  %0.005    0     0      3;                              
 ];